The first line of text.
New line.
sfnajkhquiweryiq
sjhkjfd
