dfjlksdjfsjdkfljsd
New line.
sfnajkhquiweryiq
sjhkjfd
