The first line of text.
New line.
sfnajkhquiweryiq
sjhkjfd

Test addition by EBD