dfjlksdjfsjdkfljsd
New line.
sfnajkhquiweryiq
sjhkjfd

Test addition by EBD